# generated using pymatgen
data_Ca2BeAs2
_symmetry_space_group_name_H-M   'P 1'
_cell_length_a   8.00904004
_cell_length_b   8.00904060
_cell_length_c   7.06349800
_cell_angle_alpha   90.00000000
_cell_angle_beta   90.00000000
_cell_angle_gamma   150.24788097
_symmetry_Int_Tables_number   1
_chemical_formula_structural   Ca2BeAs2
_chemical_formula_sum   'Ca4 Be2 As4'
_cell_volume   224.84337334
_cell_formula_units_Z   2
loop_
 _symmetry_equiv_pos_site_id
 _symmetry_equiv_pos_as_xyz
  1  'x, y, z'
loop_
 _atom_site_type_symbol
 _atom_site_label
 _atom_site_symmetry_multiplicity
 _atom_site_fract_x
 _atom_site_fract_y
 _atom_site_fract_z
 _atom_site_occupancy
  Ca  Ca0  1  0.20762900  0.79236900  0.09700000  1
  Ca  Ca1  1  0.97134800  0.02865000  0.27989400  1
  Ca  Ca2  1  0.79236900  0.20762900  0.59700000  1
  Ca  Ca3  1  0.02865000  0.97134800  0.77989400  1
  Be  Be4  1  0.59056800  0.40943000  0.41944300  1
  Be  Be5  1  0.40943000  0.59056800  0.91944300  1
  As  As6  1  0.83948400  0.16051400  0.99624700  1
  As  As7  1  0.56310100  0.43689700  0.07306800  1
  As  As8  1  0.16051400  0.83948400  0.49624700  1
  As  As9  1  0.43689700  0.56310100  0.57306800  1
