# generated using pymatgen
data_Be(B6N)2
_symmetry_space_group_name_H-M   'P 1'
_cell_length_a   5.23498304
_cell_length_b   5.23498231
_cell_length_c   5.23498329
_cell_angle_alpha   63.15765734
_cell_angle_beta   116.84234017
_cell_angle_gamma   116.84233409
_symmetry_Int_Tables_number   1
_chemical_formula_structural   Be(B6N)2
_chemical_formula_sum   'Be1 B12 N2'
_cell_volume   108.54778637
_cell_formula_units_Z   1
loop_
 _symmetry_equiv_pos_site_id
 _symmetry_equiv_pos_as_xyz
  1  'x, y, z'
loop_
 _atom_site_type_symbol
 _atom_site_label
 _atom_site_symmetry_multiplicity
 _atom_site_fract_x
 _atom_site_fract_y
 _atom_site_fract_z
 _atom_site_occupancy
  Be  Be0  1  0.50000100  0.50000000  0.50000100  1
  B  B1  1  0.66925400  0.00366600  0.00366800  1
  B  B2  1  0.99633300  0.33074600  0.00366800  1
  B  B3  1  0.32360300  0.19705600  0.19705600  1
  B  B4  1  0.80294400  0.67639600  0.19705600  1
  B  B5  1  0.19705600  0.80294500  0.32360300  1
  B  B6  1  0.99633400  0.00366700  0.33074700  1
  B  B7  1  0.00366700  0.99633400  0.66925300  1
  B  B8  1  0.80294500  0.19705700  0.67639600  1
  B  B9  1  0.19705500  0.32360300  0.80294300  1
  B  B10  1  0.67639600  0.80294400  0.80294300  1
  B  B11  1  0.00366700  0.66925300  0.99633400  1
  B  B12  1  0.33074600  0.99633300  0.99633400  1
  N  N13  1  0.62370300  0.37629900  0.37629900  1
  N  N14  1  0.37629900  0.62370200  0.62370200  1
