# generated using pymatgen
data_CaBeB14
_symmetry_space_group_name_H-M   'P 1'
_cell_length_a   7.21805698
_cell_length_b   7.21805655
_cell_length_c   7.21805559
_cell_angle_alpha   133.00750822
_cell_angle_beta   110.40218393
_cell_angle_gamma   88.24062748
_symmetry_Int_Tables_number   1
_chemical_formula_structural   CaBeB14
_chemical_formula_sum   'Ca2 Be2 B28'
_cell_volume   245.70437300
_cell_formula_units_Z   2
loop_
 _symmetry_equiv_pos_site_id
 _symmetry_equiv_pos_as_xyz
  1  'x, y, z'
loop_
 _atom_site_type_symbol
 _atom_site_label
 _atom_site_symmetry_multiplicity
 _atom_site_fract_x
 _atom_site_fract_y
 _atom_site_fract_z
 _atom_site_occupancy
  Ca  Ca0  1  0.60857700  0.25000000  0.35857700  1
  Ca  Ca1  1  0.39142300  0.75000000  0.64142300  1
  Be  Be2  1  -0.00000000  -0.00000000  0.50000000  1
  Be  Be3  1  0.00000000  0.50000000  0.00000000  1
  B  B4  1  0.63397400  0.66551300  0.96846200  1
  B  B5  1  0.36602600  0.33448700  0.03153800  1
  B  B6  1  0.19705100  0.16551300  0.03153800  1
  B  B7  1  0.80294900  0.83448700  0.96846200  1
  B  B8  1  0.79049100  0.15579700  0.63469200  1
  B  B9  1  0.20950900  0.84420300  0.36530800  1
  B  B10  1  0.02110600  0.65579700  0.36530800  1
  B  B11  1  0.97889400  0.34420300  0.63469200  1
  B  B12  1  0.92183000  0.08997500  0.83185500  1
  B  B13  1  0.07817000  0.91002500  0.16814500  1
  B  B14  1  0.75812300  0.58997500  0.16814500  1
  B  B15  1  0.24187700  0.41002500  0.83185500  1
  B  B16  1  0.39752500  0.39651900  0.67794600  1
  B  B17  1  0.60247500  0.28042100  0.99899500  1
  B  B18  1  0.21857300  0.89651900  0.99899500  1
  B  B19  1  0.78142700  0.78042100  0.67794600  1
  B  B20  1  0.60247500  0.60348100  0.32205400  1
  B  B21  1  0.39752500  0.71957900  0.00100500  1
  B  B22  1  0.78142700  0.10348100  0.00100500  1
  B  B23  1  0.21857300  0.21957900  0.32205400  1
  B  B24  1  0.03366600  0.82683500  0.69910600  1
  B  B25  1  0.96633400  0.66544000  0.79316800  1
  B  B26  1  0.62772800  0.32683500  0.79316800  1
  B  B27  1  0.37227200  0.16544000  0.69910600  1
  B  B28  1  0.96633400  0.17316500  0.30089400  1
  B  B29  1  0.03366600  0.33456000  0.20683200  1
  B  B30  1  0.37227200  0.67316500  0.20683200  1
  B  B31  1  0.62772800  0.83456000  0.30089400  1
