# generated using pymatgen
data_LiBeB14
_symmetry_space_group_name_H-M   'P 1'
_cell_length_a   7.11126224
_cell_length_b   7.11126349
_cell_length_c   7.11126280
_cell_angle_alpha   132.27365381
_cell_angle_beta   110.81264612
_cell_angle_gamma   88.39633236
_symmetry_Int_Tables_number   1
_chemical_formula_structural   LiBeB14
_chemical_formula_sum   'Li2 Be2 B28'
_cell_volume   236.87238123
_cell_formula_units_Z   2
loop_
 _symmetry_equiv_pos_site_id
 _symmetry_equiv_pos_as_xyz
  1  'x, y, z'
loop_
 _atom_site_type_symbol
 _atom_site_label
 _atom_site_symmetry_multiplicity
 _atom_site_fract_x
 _atom_site_fract_y
 _atom_site_fract_z
 _atom_site_occupancy
  Li  Li0  1  0.90031000  0.25000000  0.65031000  1
  Li  Li1  1  0.09969000  0.75000000  0.34969000  1
  Be  Be2  1  0.50000000  0.50000000  0.50000000  1
  Be  Be3  1  0.50000000  0.00000000  0.00000000  1
  B  B4  1  0.72702600  0.72378600  0.32459200  1
  B  B5  1  0.71307100  0.33888900  0.37418300  1
  B  B6  1  0.87279000  0.66809700  0.70356600  1
  B  B7  1  0.12721000  0.83077500  0.79530600  1
  B  B8  1  0.53546900  0.83190300  0.20469400  1
  B  B9  1  0.46453100  0.66922500  0.29643400  1
  B  B10  1  0.12721000  0.33190300  0.29643400  1
  B  B11  1  0.87279000  0.16922500  0.20469400  1
  B  B12  1  0.46453100  0.16809700  0.79530600  1
  B  B13  1  0.53546900  0.33077500  0.70356600  1
  B  B14  1  0.10080700  0.77621400  0.00324000  1
  B  B15  1  0.89919300  0.90243400  0.67540800  1
  B  B16  1  0.89919300  0.22378600  0.99676000  1
  B  B17  1  0.27297400  0.59756600  0.99676000  1
  B  B18  1  0.10080700  0.09756600  0.32459200  1
  B  B19  1  0.53529300  0.16111100  0.37418300  1
  B  B20  1  0.27297400  0.27621400  0.67540800  1
  B  B21  1  0.72702600  0.40243400  0.00324000  1
  B  B22  1  0.74251700  0.91200800  0.83050800  1
  B  B23  1  0.25748300  0.08799200  0.16949200  1
  B  B24  1  0.41850000  0.58799200  0.83050800  1
  B  B25  1  0.58150000  0.41200800  0.16949200  1
  B  B26  1  0.86434000  0.83245900  0.03188100  1
  B  B27  1  0.13566000  0.16754100  0.96811900  1
  B  B28  1  0.69942200  0.66754100  0.03188100  1
  B  B29  1  0.30057800  0.33245900  0.96811900  1
  B  B30  1  0.46470700  0.83888900  0.62581700  1
  B  B31  1  0.28692900  0.66111100  0.62581700  1
