# generated using pymatgen
data_Ba2BeP2
_symmetry_space_group_name_H-M   'P 1'
_cell_length_a   7.99997471
_cell_length_b   7.99997334
_cell_length_c   7.99997384
_cell_angle_alpha   130.42496679
_cell_angle_beta   69.40336369
_cell_angle_gamma   134.69517539
_symmetry_Int_Tables_number   1
_chemical_formula_structural   Ba2BeP2
_chemical_formula_sum   'Ba4 Be2 P4'
_cell_volume   271.86955868
_cell_formula_units_Z   2
loop_
 _symmetry_equiv_pos_site_id
 _symmetry_equiv_pos_as_xyz
  1  'x, y, z'
loop_
 _atom_site_type_symbol
 _atom_site_label
 _atom_site_symmetry_multiplicity
 _atom_site_fract_x
 _atom_site_fract_y
 _atom_site_fract_z
 _atom_site_occupancy
  Ba  Ba0  1  0.86188900  0.30022600  0.16211500  1
  Ba  Ba1  1  0.63811200  0.80022600  0.43833800  1
  Ba  Ba2  1  0.36188900  0.19977400  0.56166300  1
  Ba  Ba3  1  0.13811100  0.69977400  0.83788600  1
  Be  Be4  1  0.25000000  0.25000000  0.00000000  1
  Be  Be5  1  0.75000000  0.75000000  0.00000000  1
  P  P6  1  0.40300200  0.68020000  0.08320000  1
  P  P7  1  0.09699800  0.18020000  0.27719800  1
  P  P8  1  0.90300200  0.81980100  0.72280300  1
  P  P9  1  0.59699800  0.31980100  0.91680000  1
