# generated using pymatgen
data_NaBe4P3
_symmetry_space_group_name_H-M   'P 1'
_cell_length_a   3.60484149
_cell_length_b   3.60907833
_cell_length_c   9.23988142
_cell_angle_alpha   95.13671616
_cell_angle_beta   86.52206807
_cell_angle_gamma   90.74905912
_symmetry_Int_Tables_number   1
_chemical_formula_structural   NaBe4P3
_chemical_formula_sum   'Na1 Be4 P3'
_cell_volume   119.50546321
_cell_formula_units_Z   1
loop_
 _symmetry_equiv_pos_site_id
 _symmetry_equiv_pos_as_xyz
  1  'x, y, z'
loop_
 _atom_site_type_symbol
 _atom_site_label
 _atom_site_symmetry_multiplicity
 _atom_site_fract_x
 _atom_site_fract_y
 _atom_site_fract_z
 _atom_site_occupancy
  Na  Na0  1  0.64027500  0.83497200  0.45734300  1
  Be  Be1  1  0.59666800  0.29311600  0.12398000  1
  Be  Be2  1  0.13808400  0.72810800  0.81706500  1
  Be  Be3  1  0.09222700  0.78779200  0.12370400  1
  Be  Be4  1  0.64071100  0.22642700  0.81797900  1
  P  P5  1  0.61401300  0.76041300  0.97197400  1
  P  P6  1  0.07770900  0.31765200  0.25305100  1
  P  P7  1  0.15994000  0.19997900  0.69018600  1
