# generated using pymatgen
data_RbBe4P3
_symmetry_space_group_name_H-M   'P 1'
_cell_length_a   3.65184400
_cell_length_b   3.65184400
_cell_length_c   9.80286600
_cell_angle_alpha   90.00000000
_cell_angle_beta   90.00000000
_cell_angle_gamma   90.00000000
_symmetry_Int_Tables_number   1
_chemical_formula_structural   RbBe4P3
_chemical_formula_sum   'Rb1 Be4 P3'
_cell_volume   130.73067396
_cell_formula_units_Z   1
loop_
 _symmetry_equiv_pos_site_id
 _symmetry_equiv_pos_as_xyz
  1  'x, y, z'
loop_
 _atom_site_type_symbol
 _atom_site_label
 _atom_site_symmetry_multiplicity
 _atom_site_fract_x
 _atom_site_fract_y
 _atom_site_fract_z
 _atom_site_occupancy
  Rb  Rb0  1  0.00000000  0.00000000  0.50000000  1
  Be  Be1  1  0.00000000  0.50000000  0.14304400  1
  Be  Be2  1  0.00000000  0.50000000  0.85695600  1
  Be  Be3  1  0.50000000  0.00000000  0.85695600  1
  Be  Be4  1  0.50000000  0.00000000  0.14304400  1
  P  P5  1  0.00000000  0.00000000  0.00000000  1
  P  P6  1  0.50000000  0.50000000  0.26093300  1
  P  P7  1  0.50000000  0.50000000  0.73906700  1
