# generated using pymatgen
data_BeZnP4
_symmetry_space_group_name_H-M   'P 1'
_cell_length_a   7.02968200
_cell_length_b   7.37493834
_cell_length_c   8.61211034
_cell_angle_alpha   77.63987262
_cell_angle_beta   90.00000000
_cell_angle_gamma   90.00000000
_symmetry_Int_Tables_number   1
_chemical_formula_structural   BeZnP4
_chemical_formula_sum   'Be4 Zn4 P16'
_cell_volume   436.13290943
_cell_formula_units_Z   4
loop_
 _symmetry_equiv_pos_site_id
 _symmetry_equiv_pos_as_xyz
  1  'x, y, z'
loop_
 _atom_site_type_symbol
 _atom_site_label
 _atom_site_symmetry_multiplicity
 _atom_site_fract_x
 _atom_site_fract_y
 _atom_site_fract_z
 _atom_site_occupancy
  Be  Be0  1  0.25218800  0.60577700  0.07913700  1
  Be  Be1  1  0.75218800  0.89422300  0.92086300  1
  Be  Be2  1  0.74781200  0.39422300  0.92086300  1
  Be  Be3  1  0.24781200  0.10577700  0.07913700  1
  Zn  Zn4  1  0.90423400  0.77770900  0.38633800  1
  Zn  Zn5  1  0.40423400  0.72229100  0.61366200  1
  Zn  Zn6  1  0.09576600  0.22229100  0.61366200  1
  Zn  Zn7  1  0.59576600  0.27770900  0.38633800  1
  P  P8  1  0.56351400  0.78520100  0.36617300  1
  P  P9  1  0.06351400  0.71479900  0.63382700  1
  P  P10  1  0.43648600  0.21479900  0.63382700  1
  P  P11  1  0.93648600  0.28520100  0.36617300  1
  P  P12  1  0.99135600  0.56575200  0.22101500  1
  P  P13  1  0.49135600  0.93424800  0.77898500  1
  P  P14  1  0.00864400  0.43424800  0.77898500  1
  P  P15  1  0.50864400  0.06575200  0.22101500  1
  P  P16  1  0.50523900  0.57314900  0.22644100  1
  P  P17  1  0.00523900  0.92685100  0.77355900  1
  P  P18  1  0.49476100  0.42685100  0.77355900  1
  P  P19  1  0.99476100  0.07314900  0.22644100  1
  P  P20  1  0.74458400  0.61065600  0.05588200  1
  P  P21  1  0.24458400  0.88934400  0.94411800  1
  P  P22  1  0.25541600  0.38934400  0.94411800  1
  P  P23  1  0.75541600  0.11065600  0.05588200  1
